Version 4
SHEET 1 4028 680
WIRE 464 -960 304 -960
WIRE 736 -896 720 -896
WIRE 864 -896 816 -896
WIRE 1008 -896 896 -896
WIRE -608 -848 -848 -848
WIRE 304 -848 304 -960
WIRE 320 -848 304 -848
WIRE 464 -832 464 -960
WIRE 464 -832 384 -832
WIRE 528 -832 464 -832
WIRE -416 -816 -464 -816
WIRE -224 -816 -416 -816
WIRE -112 -816 -160 -816
WIRE -64 -816 -112 -816
WIRE -32 -816 -64 -816
WIRE 128 -816 112 -816
WIRE 144 -816 128 -816
WIRE 256 -816 224 -816
WIRE 320 -816 256 -816
WIRE 992 -816 896 -816
WIRE 864 -800 864 -816
WIRE 896 -800 896 -816
WIRE -608 -784 -720 -784
WIRE -80 -752 -112 -752
WIRE -80 -736 -80 -752
WIRE -32 -736 -80 -736
WIRE 128 -736 128 -816
WIRE 320 -736 128 -736
WIRE 528 -736 528 -832
WIRE 528 -736 384 -736
WIRE 928 -464 896 -464
WIRE 1072 -464 1008 -464
WIRE 2112 -368 1952 -368
WIRE 768 -352 720 -352
WIRE 2464 -336 2336 -336
WIRE 2592 -336 2464 -336
WIRE 848 -320 848 -352
WIRE 896 -320 896 -464
WIRE 896 -320 848 -320
WIRE 928 -320 896 -320
WIRE 2336 -320 2336 -336
WIRE 1072 -304 1072 -464
WIRE 1072 -304 992 -304
WIRE 928 -288 896 -288
WIRE 768 -272 720 -272
WIRE 848 -272 848 -320
WIRE 896 -256 896 -288
WIRE 1952 -256 1952 -368
WIRE 1968 -256 1952 -256
WIRE 2112 -240 2112 -368
WIRE 2112 -240 2032 -240
WIRE 2176 -240 2112 -240
WIRE 2224 -240 2176 -240
WIRE 2336 -240 2336 -256
WIRE 2336 -240 2304 -240
WIRE 2352 -240 2336 -240
WIRE 2368 -240 2352 -240
WIRE 2464 -240 2464 -256
WIRE 2464 -240 2432 -240
WIRE 2496 -240 2464 -240
WIRE 2864 -240 2768 -240
WIRE 960 -224 960 -272
WIRE 1680 -224 1664 -224
WIRE 1776 -224 1760 -224
WIRE 1792 -224 1776 -224
WIRE 1904 -224 1872 -224
WIRE 1968 -224 1904 -224
WIRE 2592 -224 2592 -336
WIRE 2592 -224 2560 -224
WIRE 2704 -224 2592 -224
WIRE 2496 -208 2480 -208
WIRE 2528 -160 2528 -192
WIRE 2528 -160 2352 -160
WIRE 1776 -144 1776 -224
WIRE 1968 -144 1776 -144
WIRE 2176 -144 2176 -240
WIRE 2176 -144 2032 -144
WIRE 2528 -144 2528 -160
WIRE -656 -128 -736 -128
WIRE -576 -128 -656 -128
WIRE -480 -128 -576 -128
WIRE 192 -64 -16 -64
WIRE 368 -64 256 -64
WIRE 464 -64 448 -64
WIRE 192 -48 144 -48
WIRE 464 -16 464 -64
WIRE -16 16 -16 -64
WIRE 144 32 144 -48
WIRE 144 64 144 32
WIRE 240 64 144 64
WIRE -16 160 -16 96
WIRE 240 160 240 144
WIRE 240 160 -16 160
WIRE 464 160 464 48
WIRE 464 160 240 160
WIRE 240 176 240 160
FLAG 240 176 0
FLAG -576 -128 0
FLAG -576 -208 +2.5V
FLAG -480 -208 -2.5V
FLAG -736 -208 3k
FLAG -720 -784 3k
FLAG 464 -64 ook
FLAG 960 -224 0
FLAG 720 -272 ook
FLAG 960 -336 +5V
FLAG 1072 -304 fullanalog
FLAG 720 -352 amsig
FLAG 896 -256 +2.5V
FLAG 2000 -272 +5V
FLAG 2000 -208 0
FLAG 1904 -288 0
FLAG 1664 -224 tout
FLAG 2176 -240 sklp
FLAG -656 -208 +5V
FLAG 144 32 ogdata
FLAG 2528 -256 +5V
FLAG 2528 -144 0
FLAG 2480 -208 +2.5V
FLAG 2736 -208 0
FLAG 2736 -272 +5V
FLAG 2704 -256 +2.5V
FLAG 2864 -240 Data
FLAG -608 -752 0
FLAG -848 -768 0
FLAG -416 -816 amsig
FLAG 896 -800 0
FLAG 864 -800 0
FLAG -32 -736 0
FLAG -64 -816 diode
FLAG 352 -864 +5V
FLAG 352 -800 0
FLAG 256 -880 0
FLAG 720 -896 fullanalog
FLAG 0 0 0
SYMBOL voltage 240 48 R0
WINDOW 123 0 0 Left 0
WINDOW 39 0 0 Left 0
SYMATTR InstName V1
SYMATTR Value PULSE(0 5 0 0 0 16u 32u)
SYMBOL voltage -16 0 R0
WINDOW 123 0 0 Left 0
WINDOW 39 0 0 Left 0
SYMATTR InstName V2
SYMATTR Value PULSE(0 5 0 0 0 .25u .5u)
SYMBOL Digital\\and 224 -112 R0
WINDOW 3 0 0 Invisible 0
SYMATTR Value Vhigh=5 Vlow=0
SYMATTR InstName A2
SYMBOL res 464 -80 R90
WINDOW 0 0 56 VBottom 2
WINDOW 3 32 56 VTop 2
SYMATTR InstName R1
SYMATTR Value 13k
SYMBOL cap 448 -16 R0
SYMATTR InstName C1
SYMATTR Value 16p
SYMBOL voltage -576 -224 R0
WINDOW 3 24 44 Left 2
WINDOW 123 0 0 Left 0
WINDOW 39 0 0 Left 0
SYMATTR Value 2.5
SYMATTR InstName V5
SYMBOL voltage -480 -224 R0
WINDOW 3 24 44 Left 2
WINDOW 123 0 0 Left 0
WINDOW 39 0 0 Left 0
SYMATTR Value -2.5
SYMATTR InstName V6
SYMBOL voltage -736 -224 R0
WINDOW 3 -181 22 Left 2
WINDOW 123 0 0 Left 0
WINDOW 39 0 0 Left 0
SYMATTR Value SINE(.5 .5 3k)
SYMATTR InstName V7
SYMBOL res 864 -368 R90
WINDOW 0 0 56 VBottom 2
WINDOW 3 32 56 VTop 2
SYMATTR InstName R5
SYMATTR Value 40k
SYMBOL res 864 -288 R90
WINDOW 0 0 56 VBottom 2
WINDOW 3 32 56 VTop 2
SYMATTR InstName R6
SYMATTR Value 10k
SYMBOL res 1024 -480 R90
WINDOW 0 0 56 VBottom 2
WINDOW 3 32 56 VTop 2
SYMATTR InstName R7
SYMATTR Value 10k
SYMBOL res 1776 -240 R90
WINDOW 0 0 56 VBottom 2
WINDOW 3 32 56 VTop 2
SYMATTR InstName R8
SYMATTR Value 20k
SYMBOL res 1888 -240 R90
WINDOW 0 0 56 VBottom 2
WINDOW 3 32 56 VTop 2
SYMATTR InstName R10
SYMATTR Value 20k
SYMBOL cap 2032 -160 R90
WINDOW 0 0 32 VBottom 2
WINDOW 3 32 32 VTop 2
SYMATTR InstName C2
SYMATTR Value 10p
SYMBOL cap 1888 -288 R0
SYMATTR InstName C4
SYMATTR Value 10p
SYMBOL voltage -656 -224 R0
WINDOW 3 24 44 Left 2
WINDOW 123 0 0 Left 0
WINDOW 39 0 0 Left 0
SYMATTR Value 5
SYMATTR InstName V3
SYMBOL res 2320 -256 R90
WINDOW 0 0 56 VBottom 2
WINDOW 3 30 78 VTop 2
SYMATTR InstName R11
SYMATTR Value 5.6k
SYMBOL res 2368 -144 R180
WINDOW 0 38 20 Left 2
WINDOW 3 36 40 Left 2
SYMATTR InstName R12
SYMATTR Value 16k
SYMBOL res 2480 -240 R180
WINDOW 0 36 76 Left 2
WINDOW 3 -49 84 Left 2
SYMATTR InstName R16
SYMATTR Value 13k
SYMBOL cap 2320 -320 R0
WINDOW 3 -42 11 Left 2
SYMATTR Value 220p
SYMATTR InstName C5
SYMBOL cap 2432 -256 R90
WINDOW 0 0 32 VBottom 2
WINDOW 3 -48 32 VTop 2
SYMATTR InstName C6
SYMATTR Value .0022µ
SYMBOL Opamps\\LT1810 2736 -304 R0
SYMATTR InstName U7
SYMBOL Opamps\\LT1810 2528 -288 R0
SYMATTR InstName U3
SYMBOL Opamps\\LT1810 2000 -304 R0
SYMATTR InstName U4
SYMBOL Opamps\\LT1810 960 -368 R0
SYMATTR InstName U1
SYMBOL SpecialFunctions\\modulate -608 -848 R0
WINDOW 3 -181 126 Left 2
SYMATTR InstName A1
SYMATTR Value mark=500k space=.1K
SYMBOL voltage -848 -864 R0
WINDOW 123 0 0 Left 0
WINDOW 39 0 0 Left 0
SYMATTR InstName V4
SYMATTR Value 1
SYMBOL ind2 880 -800 R180
WINDOW 0 36 80 Left 2
WINDOW 3 36 40 Left 2
SYMATTR InstName L1
SYMATTR Value 870µ
SYMBOL ind2 880 -912 R0
SYMATTR InstName L2
SYMATTR Value 870µ
SYMBOL schottky -224 -800 R270
WINDOW 0 32 32 VTop 2
WINDOW 3 0 32 VBottom 2
SYMATTR InstName D1
SYMATTR Value PMEG2005AEA
SYMATTR Description Diode
SYMATTR Type diode
SYMBOL res -48 -832 R0
SYMATTR InstName R2
SYMATTR Value 10k
SYMBOL cap -128 -816 R0
SYMATTR InstName C3
SYMATTR Value 1n
SYMBOL res 128 -832 R90
WINDOW 0 0 56 VBottom 2
WINDOW 3 32 56 VTop 2
SYMATTR InstName R3
SYMATTR Value 20k
SYMBOL res 240 -832 R90
WINDOW 0 0 56 VBottom 2
WINDOW 3 32 56 VTop 2
SYMATTR InstName R4
SYMATTR Value 20k
SYMBOL cap 384 -752 R90
WINDOW 0 0 32 VBottom 2
WINDOW 3 32 32 VTop 2
SYMATTR InstName C7
SYMATTR Value 10p
SYMBOL cap 240 -880 R0
SYMATTR InstName C8
SYMATTR Value 10p
SYMBOL Opamps\\LT1810 352 -896 R0
SYMATTR InstName U2
SYMBOL res 832 -912 R90
WINDOW 0 0 56 VBottom 2
WINDOW 3 32 56 VTop 2
SYMATTR InstName R9
SYMATTR Value 10
TEXT -48 184 Left 2 !.tran 500u
TEXT 32 -104 Left 2 ;OOK Circuit
TEXT 336 -120 Left 2 ;High Pass To get to SIN wave for OOK
TEXT -152 24 Left 2 ;500Khz
TEXT 1776 -392 Left 2 ;Sallen-Key Low Pass 800Khz
TEXT 2216 -384 Left 2 ;BandPass 32k Multiple Feedback Filter
TEXT 2640 -160 Left 2 ;Comparator @ +2.5V
TEXT 128 -984 Left 2 ;Sallen-Key Low Pass 800Khz
TEXT 832 -944 Left 2 !K1 L1 L2 1
